testcases/case3/Matpower.json
{"name":"case3","source_version":{"major":2,"minor":0,"patch":0,"prerelease":[],"build":[]},"baseMVA":100,"gen":[{"qc1max":0.0,"pg":0.0,"qc2max":0.0,"ramp_agc":0.0,"qg":0.0,"gen_bus":2,"pmax":100.0,"ramp_10":0.0,"vg":1.0,"mbase":100.0,"pc2":0.0,"index":1,"qmax":10000.0,"gen_status":1,"qmin":-10000.0,"qc1min":0.0,"qc2min":0.0,"pc1":0.0,"ramp_q":0.0,"ramp_30":0.0,"pmin":0.0,"apf":0.0},{"qc1max":0.0,"pg":0.0,"qc2max":0.0,"ramp_agc":0.0,"qg":0.0,"gen_bus":3,"pmax":50.0,"ramp_10":0.0,"vg":1.0,"mbase":100.0,"pc2":0.0,"index":2,"qmax":10000.0,"gen_status":1,"qmin":-10000.0,"qc1min":0.0,"qc2min":0.0,"pc1":0.0,"ramp_q":0.0,"ramp_30":0.0,"pmin":0.0,"apf":0.0},{"qc1max":0.0,"pg":0.0,"qc2max":0.0,"ramp_agc":0.0,"qg":0.0,"gen_bus":1,"pmax":80.0,"ramp_10":0.0,"vg":1.0,"mbase":100.0,"pc2":0.0,"index":3,"qmax":10000.0,"gen_status":1,"qmin":-10000.0,"qc1min":0.0,"qc2min":0.0,"pc1":0.0,"ramp_q":0.0,"ramp_30":0.0,"pmin":0.0,"apf":0.0},{"qc1max":0.0,"pg":0.0,"qc2max":0.0,"ramp_agc":0.0,"qg":0.0,"gen_bus":3,"pmax":10000.0,"ramp_10":0.0,"vg":1.0,"mbase":100.0,"pc2":0.0,"index":4,"qmax":10000.0,"gen_status":1,"qmin":-10000.0,"qc1min":0.0,"qc2min":0.0,"pc1":0.0,"ramp_q":0.0,"ramp_30":0.0,"pmin":0.0,"apf":0.0}],"branch":[{"br_r":0.065,"rate_a":100.0,"shift":0.0,"br_b":0.45,"rate_b":0.0,"br_x":1.0,"rate_c":0.0,"f_bus":1,"br_status":1,"t_bus":3,"index":1,"angmin":-360.0,"angmax":360.0,"tap":0.0},{"br_r":0.025,"rate_a":65.0,"shift":0.0,"br_b":0.7,"rate_b":0.0,"br_x":0.5,"rate_c":0.0,"f_bus":3,"br_status":1,"t_bus":2,"index":2,"angmin":-360.0,"angmax":360.0,"tap":0.0},{"br_r":0.042,"rate_a":25.0,"shift":0.0,"br_b":0.3,"rate_b":0.0,"br_x":1.0,"rate_c":0.0,"f_bus":1,"br_status":1,"t_bus":2,"index":3,"angmin":-360.0,"angmax":360.0,"tap":0.0}],"bus":[{"zone":1,"bus_i":1,"bus_type":3,"qd":0.0,"gs":0.0,"bs":0.0,"vmax":1.1,"area":1,"vmin":0.9,"index":1,"va":0.0,"vm":1.0,"base_kv":0.0,"pd":0.0},{"zone":1,"bus_i":2,"bus_type":2,"qd":0.0,"gs":0.0,"bs":0.0,"vmax":1.1,"area":1,"vmin":0.9,"index":2,"va":0.0,"vm":1.0,"base_kv":0.0,"pd":0.0},{"zone":1,"bus_i":3,"bus_type":2,"qd":0.0,"gs":0.0,"bs":0.0,"vmax":1.1,"area":1,"vmin":0.9,"index":3,"va":0.0,"vm":1.0,"base_kv":0.0,"pd":100.0}],"gencost":[{"cost":[20.0,0.0],"model":2,"shutdown":0.0,"startup":0.0,"ncost":2,"index":1},{"cost":[100.0,0.0],"model":2,"shutdown":0.0,"startup":0.0,"ncost":2,"index":2},{"cost":[0.0,0.0],"model":2,"shutdown":0.0,"startup":0.0,"ncost":2,"index":3},{"cost":[1000.0,0.0],"model":2,"shutdown":0.0,"startup":0.0,"ncost":2,"index":4}],"source_type":"matpower"}